Version 4
SHEET 1 1824 680
WIRE -2032 -1088 -2096 -1088
WIRE -1904 -1088 -1952 -1088
WIRE -2096 -1072 -2096 -1088
WIRE -1104 -1056 -1248 -1056
WIRE -816 -1056 -1104 -1056
WIRE -1104 -1008 -1104 -1056
WIRE -2096 -976 -2096 -992
WIRE -816 -944 -816 -1056
WIRE -1104 -864 -1104 -928
WIRE -864 -864 -1104 -864
WIRE -2096 -816 -2224 -816
WIRE -1920 -816 -2016 -816
WIRE -816 -784 -816 -848
WIRE -2224 -752 -2224 -816
WIRE -1104 -752 -1104 -864
WIRE -816 -720 -816 -784
WIRE -2224 -672 -2224 -688
WIRE -1216 -672 -1264 -672
WIRE -1152 -672 -1216 -672
WIRE -1216 -624 -1216 -672
WIRE -816 -624 -816 -656
WIRE -1904 -592 -2224 -592
WIRE -1216 -496 -1216 -544
WIRE -1104 -496 -1104 -656
WIRE -1104 -496 -1216 -496
WIRE -816 -496 -816 -544
WIRE -816 -496 -1104 -496
FLAG -2096 -976 0
FLAG -1904 -1088 VSupply
IOPIN -1904 -1088 In
FLAG -1920 -816 VLoad
IOPIN -1920 -816 Out
FLAG -1904 -592 LoadOn
IOPIN -1904 -592 Out
FLAG -2224 -512 0
FLAG -1248 -1056 VSupply
IOPIN -1248 -1056 In
FLAG -816 -784 VLoad
IOPIN -816 -784 Out
FLAG -1264 -672 LoadOn
IOPIN -1264 -672 In
FLAG -2224 -672 0
FLAG -1104 -496 0
SYMBOL voltage -2096 -1088 R0
WINDOW 123 0 0 Left 0
WINDOW 39 0 0 Left 0
WINDOW 3 44 52 Left 2
WINDOW 0 -13 54 Left 2
SYMATTR Value PWL file=PowerSupplyPWL.csv
SYMATTR InstName V1
SYMBOL res -2000 -832 R90
WINDOW 0 -7 47 VBottom 2
WINDOW 3 29 54 VTop 2
SYMATTR InstName RSenseLoad
SYMATTR Value 1m
SYMBOL res -1936 -1104 R90
WINDOW 0 -7 47 VBottom 2
WINDOW 3 34 56 VTop 2
SYMATTR InstName RSenseSupply
SYMATTR Value 1m
SYMBOL cap -2240 -752 R0
SYMATTR InstName C1
SYMATTR Value 10m
SYMATTR SpiceLine2 IC=0
SYMBOL voltage -2224 -608 R0
WINDOW 123 0 0 Left 0
WINDOW 39 0 0 Left 0
WINDOW 3 44 52 Left 2
WINDOW 0 -13 54 Left 2
SYMATTR Value PWL file=ChargeOnPWL.csv
SYMATTR InstName V2
SYMBOL pmos -864 -944 R0
SYMATTR InstName M1
SYMATTR Value irf9z24n
SYMATTR Prefix X
SYMATTR SpiceModel irf9z24n
SYMBOL nmos -1152 -752 R0
SYMATTR InstName M2
SYMATTR Value 2N7002
SYMBOL schottky -832 -720 R0
SYMATTR InstName D1
SYMATTR Value 1N5819
SYMATTR Description Diode
SYMATTR Type diode
SYMBOL res -1232 -640 R0
SYMATTR InstName R1
SYMATTR Value 10k
SYMBOL res -1120 -1024 R0
SYMATTR InstName R2
SYMATTR Value 10k
SYMBOL res -832 -640 R0
SYMATTR InstName RL
SYMATTR Value 1k
TEXT -2072 -904 Left 2 !.tran 0 {transtop} 0 {timestep}
TEXT -2072 -936 Left 2 !.include A1cfg.txt
TEXT -2288 -1384 Left 2 ;Don't change these -- used for auto-assessments.\nYou may modify the input files (.txt and .csv) \n               while developing.\nFor submission: \n  * Only one label name per net name.\n  * Use only VSupply for power.\n  * Use LoadOn to control charging.\n  * Use VLoad as the positive terminal of the load.
TEXT -2272 -936 Left 2 ;Config file:
TEXT -2272 -904 Left 2 ;Analysis setup:
TEXT -2328 -728 Left 2 ;Load
TEXT -2264 -1048 Left 2 ;Power\nsupply
TEXT -1552 -1400 Left 2 ;=============================\nREPLACE WITH YOUR DETAILS\nAA. Cilliers.,  23252162\n=============================
TEXT -960 -1320 Left 2 !.inc irf9z24n.lib
TEXT -960 -1400 Left 2 ;=============================\nIncludes (don't fiddle with this!!)\n=============================
TEXT -1152 -1208 Left 2 ;=======================================\nYour circuit goes here, these are just placeholders.\n=======================================
LINE Normal -1584 -1424 -1584 -480 2
LINE Normal -2368 -1424 -1584 -1424 2
LINE Normal -1584 -480 -2368 -480 2
LINE Normal -1584 -496 -1584 -496 2
LINE Normal -2368 -1424 -2368 -480 2
