Version 4
SHEET 1 1824 680
WIRE -2032 -1088 -2096 -1088
WIRE -1904 -1088 -1968 -1088
WIRE -1792 -1088 -1824 -1088
WIRE -1776 -1088 -1792 -1088
WIRE -1280 -1088 -1344 -1088
WIRE -1088 -1088 -1184 -1088
WIRE -384 -1088 -1088 -1088
WIRE -320 -1088 -384 -1088
WIRE -2096 -1072 -2096 -1088
WIRE -1088 -1056 -1088 -1088
WIRE -384 -1008 -416 -1008
WIRE -1792 -992 -1792 -1008
WIRE -2096 -976 -2096 -992
WIRE -1200 -976 -1200 -1040
WIRE -1088 -976 -1200 -976
WIRE -1200 -944 -1200 -976
WIRE -832 -944 -880 -944
WIRE -384 -912 -384 -928
WIRE -528 -896 -624 -896
WIRE -1312 -864 -1376 -864
WIRE -1248 -864 -1312 -864
WIRE -448 -848 -448 -896
WIRE -368 -848 -448 -848
WIRE -880 -832 -880 -944
WIRE -880 -832 -912 -832
WIRE 80 -832 -64 -832
WIRE -2000 -816 -2096 -816
WIRE -976 -816 -1104 -816
WIRE -368 -816 -368 -848
WIRE -368 -816 -448 -816
WIRE -208 -816 -288 -816
WIRE -128 -816 -208 -816
WIRE -624 -800 -624 -896
WIRE -624 -800 -912 -800
WIRE -512 -800 -624 -800
WIRE 0 -800 -64 -800
WIRE -2096 -784 -2096 -816
WIRE -1200 -784 -1200 -848
WIRE -1200 -784 -1312 -784
WIRE -416 -784 -416 -1008
WIRE -416 -784 -448 -784
WIRE -1200 -768 -1200 -784
WIRE -1376 -704 -1376 -864
WIRE -1104 -704 -1104 -816
WIRE -1104 -704 -1376 -704
WIRE -208 -704 -208 -816
WIRE 0 -704 0 -800
WIRE 0 -704 -208 -704
WIRE -2032 -624 -2096 -624
WIRE -1936 -624 -1952 -624
WIRE -2096 -608 -2096 -624
FLAG -2096 -976 0
FLAG -1776 -1088 A2Output
IOPIN -1776 -1088 In
FLAG -1920 -816 BatteryTerminal
IOPIN -1920 -816 Out
FLAG -2096 -704 0
FLAG -1936 -624 5V
IOPIN -1936 -624 Out
FLAG -2096 -1088 VSupply
FLAG -1792 -992 0
FLAG -2096 -528 0
FLAG -320 -1088 BatteryTerminal
IOPIN -320 -1088 Out
FLAG -1344 -1088 A2Output
IOPIN -1344 -1088 In
FLAG -832 -1024 5V
IOPIN -832 -1024 In
FLAG -1200 -768 0
FLAG -480 -768 5V
IOPIN -480 -768 In
FLAG -96 -784 5V
IOPIN -96 -784 In
FLAG 80 -912 5V
IOPIN 80 -912 In
FLAG -480 -832 0
FLAG -96 -848 0
FLAG -944 -784 5V
IOPIN -944 -784 In
FLAG -944 -848 0
FLAG -384 -912 0
FLAG 80 -752 0
FLAG -832 -864 0
FLAG -1376 -864 V_NMOSGate
IOPIN -1376 -864 Out
SYMBOL voltage -2096 -1088 R0
WINDOW 123 0 0 Left 0
WINDOW 39 0 0 Left 0
WINDOW 3 26 127 Left 2
WINDOW 0 -13 54 Left 2
SYMATTR Value PWL file=PowerSupplyPWL.csv
SYMATTR InstName V1
SYMBOL res -1904 -832 R90
WINDOW 0 -7 47 VBottom 2
WINDOW 3 29 54 VTop 2
SYMATTR InstName RSenseBattery
SYMATTR Value 1µ
SYMBOL schottky -2032 -1072 R270
WINDOW 0 32 32 VTop 2
WINDOW 3 0 32 VBottom 2
SYMATTR InstName Diode_A2
SYMATTR Value 1N5819
SYMATTR Description Diode
SYMATTR Type diode
SYMBOL voltage -2096 -800 R0
WINDOW 123 0 0 Left 0
WINDOW 39 0 0 Left 0
WINDOW 3 44 52 Left 2
WINDOW 0 -13 54 Left 2
SYMATTR Value PWL file=BatteryPWL.csv
SYMATTR InstName V3
SYMBOL res -1920 -1072 R270
WINDOW 0 32 56 VTop 2
WINDOW 3 0 56 VBottom 2
SYMATTR InstName RSenseSupply
SYMATTR Value 1
SYMBOL res -1808 -1104 R0
SYMATTR InstName QLoad
SYMATTR Value 50
SYMBOL voltage -2096 -624 R0
WINDOW 123 0 0 Left 0
WINDOW 39 0 0 Left 0
SYMATTR InstName V2
SYMATTR Value 5
SYMBOL res -2048 -640 M90
WINDOW 0 -7 47 VBottom 2
WINDOW 3 29 54 VTop 2
SYMATTR InstName RSense5V
SYMATTR Value 1µ
SYMBOL pmos -1280 -1040 R270
SYMATTR InstName M3
SYMATTR Value irf9z24n
SYMATTR Prefix X
SYMATTR SpiceModel irf9z24n
SYMBOL nmos -1248 -944 R0
SYMATTR InstName M4
SYMATTR Value 2N7002
SYMBOL OpAmps\\LTC6079 -944 -816 R180
SYMATTR InstName U1
SYMBOL OpAmps\\LTC6079 -480 -800 R180
SYMATTR InstName U2
SYMBOL OpAmps\\LTC6079 -96 -816 R180
SYMATTR InstName U3
SYMBOL res -400 -1104 R0
SYMATTR InstName R1
SYMATTR Value 100k
SYMBOL res -400 -1024 R0
SYMATTR InstName R2
SYMATTR Value 100k
SYMBOL res -1104 -1072 R0
SYMATTR InstName R3
SYMATTR Value 100k
SYMBOL res -1328 -880 R0
SYMATTR InstName R4
SYMATTR Value 10k
SYMBOL res -848 -1040 R0
SYMATTR InstName R5
SYMATTR Value 100k
SYMBOL res -848 -960 R0
SYMATTR InstName R6
SYMATTR Value 100k
SYMBOL res -432 -912 R90
WINDOW 0 0 56 VBottom 2
WINDOW 3 32 56 VTop 2
SYMATTR InstName R9
SYMATTR Value 300k
SYMBOL res -272 -832 R90
WINDOW 0 0 56 VBottom 2
WINDOW 3 32 56 VTop 2
SYMATTR InstName R10
SYMATTR Value 6.13k
SYMBOL res 64 -848 R0
SYMATTR InstName R11
SYMATTR Value 15.789k
SYMBOL res 64 -928 R0
SYMATTR InstName R12
SYMATTR Value 10k
TEXT -2072 -904 Left 2 !.tran 0 {transtop} 0
TEXT -2072 -936 Left 2 !.include A1cfg.txt
TEXT -2288 -1384 Left 2 ;Don't change these -- used for auto-assessments.\nYou may modify the input files (.txt and .csv) \n               while developing.\nFor submission: \n  * Only one label name per net name\n  * Use only VSupply for power\n  * Use ChargeOn to control charging\n  * Use BatteryTerminal as your battery's \n          positive terminal
TEXT -2272 -936 Left 2 ;Config file:
TEXT -2272 -904 Left 2 ;Analysis setup:
TEXT -2264 -1048 Left 2 ;Power\nsupply
TEXT -824 -1216 Center 2 ;==================\nAA. Cilliers.,  23252162\n==================
TEXT -960 -1320 Left 2 !.inc irf9z24n.lib
TEXT -960 -1400 Left 2 ;=============================\nIncludes (don't fiddle with this!!)\n=============================
TEXT -1104 -1520 Left 2 ;=======================================\nYour circuit goes here, these are just placeholders.\n=======================================
TEXT -1528 -592 Left 2 ;THIS CIRCUIT MIGHT TAKE A WHILE TO SIMULATE TO COMPLETION (THIS IS WHEN YOU CAN SEE YOUR WAVEFORMS FOR THE FULL 2 SECOND DURATION).\nPLEASE WAIT FOR THE SOLVER TO FINISH BEFORE SUBMITTING YOUR CIRCUIT.\n \nYou may use less or more op-amps than are presented here. Use LTC6069 op-amps in your simulations; the TLC2272 SPICE models can sometimes take quite a while to simulate.\nYou may use the 5V net to power your circuit. In practice, you will be given a voltage regulator for this purpose.
LINE Normal -1584 -1424 -1584 -480 2
LINE Normal -2368 -1424 -1584 -1424 2
LINE Normal -1584 -480 -2368 -480 2
LINE Normal -1584 -496 -1584 -496 2
LINE Normal -2368 -1424 -2368 -480 2
