Version 4
SHEET 1 1824 680
WIRE -2032 -1088 -2096 -1088
WIRE -1904 -1088 -1968 -1088
WIRE -1792 -1088 -1824 -1088
WIRE -1776 -1088 -1792 -1088
WIRE -2096 -1072 -2096 -1088
WIRE -1280 -1040 -1344 -1040
WIRE -1088 -1040 -1184 -1040
WIRE -384 -1040 -1088 -1040
WIRE -240 -1040 -384 -1040
WIRE -1088 -1008 -1088 -1040
WIRE -1792 -992 -1792 -1008
WIRE -2096 -976 -2096 -992
WIRE -384 -960 -416 -960
WIRE -1200 -928 -1200 -992
WIRE -1088 -928 -1200 -928
WIRE -1200 -896 -1200 -928
WIRE -384 -864 -384 -880
WIRE -2000 -816 -2096 -816
WIRE -1312 -816 -1376 -816
WIRE -1248 -816 -1312 -816
WIRE -2096 -784 -2096 -816
WIRE 80 -784 -64 -784
WIRE -208 -768 -320 -768
WIRE -128 -768 -208 -768
WIRE -768 -752 -848 -752
WIRE 0 -752 -64 -752
WIRE -1200 -736 -1200 -800
WIRE -1200 -736 -1312 -736
WIRE -1200 -720 -1200 -736
WIRE -688 -720 -688 -752
WIRE -608 -720 -688 -720
WIRE -608 -672 -608 -720
WIRE -608 -672 -688 -672
WIRE -576 -672 -608 -672
WIRE -416 -672 -416 -960
WIRE -416 -672 -496 -672
WIRE -1376 -656 -1376 -816
WIRE -848 -656 -848 -752
WIRE -848 -656 -1376 -656
WIRE -752 -656 -848 -656
WIRE -208 -656 -208 -768
WIRE 0 -656 0 -752
WIRE 0 -656 -208 -656
WIRE -320 -640 -320 -768
WIRE -320 -640 -688 -640
WIRE -2032 -624 -2096 -624
WIRE -1936 -624 -1952 -624
WIRE -2096 -608 -2096 -624
FLAG -2096 -976 0
FLAG -1776 -1088 A2Output
IOPIN -1776 -1088 In
FLAG -1920 -816 BatteryTerminal
IOPIN -1920 -816 Out
FLAG -2096 -704 0
FLAG -1936 -624 5V
IOPIN -1936 -624 Out
FLAG -2096 -1088 VSupply
FLAG -1792 -992 0
FLAG -2096 -528 0
FLAG -1200 -720 0
FLAG -720 -624 5V
IOPIN -720 -624 In
FLAG -96 -736 5V
IOPIN -96 -736 In
FLAG 80 -864 5V
IOPIN 80 -864 In
FLAG -720 -688 0
FLAG -96 -800 0
FLAG -384 -864 0
FLAG 80 -704 0
FLAG -240 -1040 BatteryTerminal
IOPIN -240 -1040 Out
FLAG -1344 -1040 A2Output
IOPIN -1344 -1040 In
SYMBOL voltage -2096 -1088 R0
WINDOW 123 0 0 Left 0
WINDOW 39 0 0 Left 0
WINDOW 3 26 127 Left 2
WINDOW 0 -13 54 Left 2
SYMATTR Value PWL file=PowerSupplyPWL.csv
SYMATTR InstName V1
SYMBOL res -1904 -832 R90
WINDOW 0 -7 47 VBottom 2
WINDOW 3 29 54 VTop 2
SYMATTR InstName RSenseBattery
SYMATTR Value 1µ
SYMBOL schottky -2032 -1072 R270
WINDOW 0 32 32 VTop 2
WINDOW 3 0 32 VBottom 2
SYMATTR InstName Diode_A2
SYMATTR Value 1N5819
SYMATTR Description Diode
SYMATTR Type diode
SYMBOL voltage -2096 -800 R0
WINDOW 123 0 0 Left 0
WINDOW 39 0 0 Left 0
WINDOW 3 44 52 Left 2
WINDOW 0 -13 54 Left 2
SYMATTR Value PWL file=BatteryPWL.csv
SYMATTR InstName V3
SYMBOL res -1920 -1072 R270
WINDOW 0 32 56 VTop 2
WINDOW 3 0 56 VBottom 2
SYMATTR InstName RSenseSupply
SYMATTR Value 1
SYMBOL res -1808 -1104 R0
SYMATTR InstName QLoad
SYMATTR Value 50
SYMBOL voltage -2096 -624 R0
WINDOW 123 0 0 Left 0
WINDOW 39 0 0 Left 0
SYMATTR InstName V2
SYMATTR Value 5
SYMBOL res -2048 -640 M90
WINDOW 0 -7 47 VBottom 2
WINDOW 3 29 54 VTop 2
SYMATTR InstName RSense5V
SYMATTR Value 1µ
SYMBOL pmos -1280 -992 R270
SYMATTR InstName M1
SYMATTR Value irf9z24n
SYMATTR Prefix X
SYMATTR SpiceModel irf9z24n
SYMBOL nmos -1248 -896 R0
SYMATTR InstName M2
SYMATTR Value 2N7002
SYMBOL OpAmps\\LTC6079 -720 -656 R180
SYMATTR InstName U2
SYMBOL OpAmps\\LTC6079 -96 -768 R180
SYMATTR InstName U4
SYMBOL res -400 -1056 R0
SYMATTR InstName R5
SYMATTR Value 100k
SYMBOL res -400 -976 R0
SYMATTR InstName R6
SYMATTR Value 100k
SYMBOL res -1104 -1024 R0
SYMATTR InstName R7
SYMATTR Value 100k
SYMBOL res -1328 -832 R0
SYMATTR InstName R8
SYMATTR Value 10k
SYMBOL res 64 -800 R0
SYMATTR InstName R15
SYMATTR Value 15.789k
SYMBOL res 64 -880 R0
SYMATTR InstName R16
SYMATTR Value 10k
SYMBOL res -672 -768 R90
WINDOW 0 0 56 VBottom 2
WINDOW 3 32 56 VTop 2
SYMATTR InstName R1
SYMATTR Value 300k
SYMBOL res -480 -688 R90
WINDOW 0 0 56 VBottom 2
WINDOW 3 32 56 VTop 2
SYMATTR InstName R2
SYMATTR Value 6000
TEXT -2072 -904 Left 2 !.tran 0 {transtop} 0
TEXT -2072 -936 Left 2 !.include A1cfg.txt
TEXT -2288 -1384 Left 2 ;Don't change these -- used for auto-assessments.\nYou may modify the input files (.txt and .csv) \n               while developing.\nFor submission: \n  * Only one label name per net name\n  * Use only VSupply for power\n  * Use ChargeOn to control charging\n  * Use BatteryTerminal as your battery's \n          positive terminal
TEXT -2272 -936 Left 2 ;Config file:
TEXT -2272 -904 Left 2 ;Analysis setup:
TEXT -2264 -1048 Left 2 ;Power\nsupply
TEXT -1552 -1400 Left 2 ;=============================\nREPLACE WITH YOUR DETAILS\nE. Stewdent.,  00024601\n=============================
TEXT -960 -1320 Left 2 !.inc irf9z24n.lib
TEXT -960 -1400 Left 2 ;=============================\nIncludes (don't fiddle with this!!)\n=============================
TEXT -1152 -1160 Left 2 ;=======================================\nYour circuit goes here, these are just placeholders.\n=======================================
LINE Normal -1584 -1424 -1584 -480 2
LINE Normal -2368 -1424 -1584 -1424 2
LINE Normal -1584 -480 -2368 -480 2
LINE Normal -1584 -496 -1584 -496 2
LINE Normal -2368 -1424 -2368 -480 2
