Version 4
SHEET 1 1824 680
WIRE -784 -1136 -960 -1136
WIRE -1120 -1120 -1184 -1120
WIRE -960 -1056 -960 -1136
WIRE -912 -1056 -960 -1056
WIRE -784 -1040 -784 -1136
WIRE -784 -1040 -848 -1040
WIRE -704 -1040 -784 -1040
WIRE -576 -1040 -624 -1040
WIRE -528 -1040 -576 -1040
WIRE -1120 -1024 -1120 -1040
WIRE -912 -1024 -1120 -1024
WIRE -1120 -1008 -1120 -1024
WIRE -576 -1008 -576 -1040
WIRE -576 -928 -576 -944
WIRE -2320 -832 -2320 -864
WIRE -976 -784 -1136 -784
WIRE -1264 -768 -1328 -768
WIRE -672 -768 -704 -768
WIRE -560 -768 -592 -768
WIRE -1136 -704 -1136 -784
WIRE -1088 -704 -1136 -704
WIRE -976 -688 -976 -784
WIRE -976 -688 -1024 -688
WIRE -832 -688 -976 -688
WIRE -1264 -672 -1264 -688
WIRE -1088 -672 -1264 -672
WIRE -1264 -656 -1264 -672
WIRE -752 -656 -752 -688
WIRE -704 -656 -704 -768
WIRE -704 -656 -752 -656
WIRE -672 -656 -704 -656
WIRE -560 -640 -560 -768
WIRE -560 -640 -608 -640
WIRE -496 -640 -560 -640
WIRE -704 -624 -816 -624
WIRE -672 -624 -704 -624
WIRE -704 -576 -704 -624
WIRE -976 -544 -1136 -544
WIRE -1264 -528 -1328 -528
WIRE -1136 -464 -1136 -544
WIRE -1088 -464 -1136 -464
WIRE -976 -448 -976 -544
WIRE -976 -448 -1024 -448
WIRE -896 -448 -896 -624
WIRE -896 -448 -976 -448
WIRE -1264 -432 -1264 -448
WIRE -1088 -432 -1264 -432
WIRE -1264 -416 -1264 -432
FLAG -2320 -944 Input
IOPIN -2320 -944 Out
FLAG -1904 -1040 0
FLAG -880 -1008 0
FLAG -2320 -752 0
FLAG -2320 -1056 0
FLAG -528 -1040 ToInputADC
IOPIN -528 -1040 Out
FLAG -496 -640 ToBatteryADC
IOPIN -496 -640 Out
FLAG -1904 -1200 5V
IOPIN -1904 -1200 Out
FLAG -2320 -1216 Battery
IOPIN -2320 -1216 Out
FLAG -1328 -528 Battery
IOPIN -1328 -528 Out
FLAG -1184 -1120 Input
IOPIN -1184 -1120 Out
FLAG -1328 -768 5V
IOPIN -1328 -768 Out
FLAG -1120 -928 0
FLAG -880 -1072 5V
IOPIN -880 -1072 Out
FLAG -576 -928 0
FLAG -1264 -336 0
FLAG -1264 -576 0
FLAG -1056 -720 5V
IOPIN -1056 -720 Out
FLAG -1056 -480 5V
IOPIN -1056 -480 Out
FLAG -1056 -656 0
FLAG -1056 -416 0
FLAG -704 -496 0
FLAG -640 -672 5V
IOPIN -640 -672 Out
FLAG -640 -608 0
SYMBOL voltage -2320 -960 R0
WINDOW 123 0 0 Left 0
WINDOW 39 0 0 Left 0
SYMATTR InstName V1
SYMATTR Value PWL file=InputPWL.csv
SYMBOL voltage -2320 -1152 R0
WINDOW 123 0 0 Left 0
WINDOW 39 0 0 Left 0
WINDOW 3 27 98 Left 2
SYMATTR Value PWL file=BatteryPWL.csv
SYMATTR InstName V2
SYMBOL voltage -1904 -1136 R0
WINDOW 123 0 0 Left 0
WINDOW 39 0 0 Left 0
SYMATTR InstName V3
SYMATTR Value 5
SYMBOL voltage -2320 -848 R0
WINDOW 123 0 0 Left 0
WINDOW 39 0 0 Left 0
SYMATTR InstName V4
SYMATTR Value PULSE(-50m 50m 0 1n 1n 0.5m 1m)
SYMBOL res -1920 -1216 R0
SYMATTR InstName RSense5V
SYMATTR Value 1µ
SYMBOL res -2336 -1232 R0
SYMATTR InstName RSenseBattery
SYMATTR Value 1µ
SYMBOL OpAmps\\LTC6079 -880 -1040 R0
WINDOW 3 26 21 Left 2
SYMATTR InstName U1
SYMBOL OpAmps\\LTC6079 -1056 -688 R0
WINDOW 3 25 30 Left 2
SYMATTR InstName U2
SYMBOL OpAmps\\LTC6079 -1056 -448 R0
WINDOW 3 23 30 Left 2
SYMATTR InstName U3
SYMBOL res -1136 -1136 R0
SYMATTR InstName R1
SYMATTR Value 47k
SYMBOL res -1136 -1024 R0
SYMATTR InstName R2
SYMATTR Value 12.085k
SYMBOL res -608 -1056 R90
WINDOW 0 0 56 VBottom 2
WINDOW 3 32 56 VTop 2
SYMATTR InstName R3
SYMATTR Value 318.31
SYMBOL cap -592 -1008 R0
SYMATTR InstName C1
SYMATTR Value 10µ
SYMBOL res -1280 -544 R0
SYMATTR InstName R4
SYMATTR Value 100k
SYMBOL res -1280 -432 R0
SYMATTR InstName R5
SYMATTR Value 100k
SYMBOL res -1280 -784 R0
SYMATTR InstName R6
SYMATTR Value 10k
SYMBOL res -1280 -672 R0
SYMATTR InstName R7
SYMATTR Value 12.22k
SYMBOL OpAmps\\LTC6079 -640 -640 R0
WINDOW 3 23 30 Left 2
SYMATTR InstName U4
SYMBOL res -736 -704 R90
WINDOW 0 0 56 VBottom 2
WINDOW 3 32 56 VTop 2
SYMATTR InstName R8
SYMATTR Value 10k
SYMBOL res -800 -640 R90
WINDOW 0 0 56 VBottom 2
WINDOW 3 32 56 VTop 2
SYMATTR InstName R9
SYMATTR Value 10k
SYMBOL res -576 -784 R90
WINDOW 0 0 56 VBottom 2
WINDOW 3 32 56 VTop 2
SYMATTR InstName R10
SYMATTR Value 45k
SYMBOL res -720 -592 R0
SYMATTR InstName R11
SYMATTR Value 45k
TEXT -2152 -1360 Left 2 !.tran 0 {transtop} 0
TEXT -2152 -1392 Left 2 !.include A6cfg.txt
TEXT -2352 -1392 Left 2 ;Config file:
TEXT -2352 -1360 Left 2 ;Analysis setup:
TEXT -1552 -1400 Left 2 ;=============================\nAA. Cilliers.,  23252162\n=============================
TEXT -1544 -1280 Left 2 ;=======================================================\nYour circuit goes here. Use these nets.\nYou may add resistors and capacitors that are available in the undergraduate labs only.\nYou may use the op-amps. If you don't feel that they are necessary, then please remove them.\n=======================================================
LINE Normal -1584 -1424 -1584 -704 2
LINE Normal -2368 -1424 -1584 -1424 2
LINE Normal -1584 -704 -2368 -704 2
LINE Normal -1584 -720 -1584 -720 2
LINE Normal -2368 -1424 -2368 -704 2
